*SPEF "ieee 1481-1999"
*DESIGN "alu"
*DATE "12:50:36 Sunday May 04, 2025"
*VENDOR "The OpenROAD Project"
*PROGRAM "OpenROAD"
*VERSION "b16bda7e82721d10566ff7e2b68f1ff0be9f9e38"
*DESIGN_FLOW "NAME_SCOPE LOCAL" "PIN_CAP NONE"
*DIVIDER /
*DELIMITER :
*BUS_DELIMITER []
*T_UNIT 1 NS
*C_UNIT 1 PF
*R_UNIT 1 OHM
*L_UNIT 1 HENRY

*NAME_MAP
*3 din1[0]
*4 din1[1]
*5 din1[2]
*6 din1[3]
*7 din1[4]
*8 din1[5]
*9 din1[6]
*10 din1[7]
*11 din2[0]
*12 din2[1]
*13 din2[2]
*14 din2[3]
*15 din2[4]
*16 din2[5]
*17 din2[6]
*18 din2[7]
*19 dout[0]
*20 dout[1]
*21 dout[2]
*22 dout[3]
*23 dout[4]
*24 dout[5]
*25 dout[6]
*26 dout[7]
*27 op[0]
*28 op[1]
*29 op[2]
*30 _000_
*31 _001_
*32 _002_
*33 _003_
*34 _004_
*35 _005_
*36 _006_
*37 _007_
*38 _008_
*39 _009_
*40 _010_
*41 _011_
*42 _012_
*43 _013_
*44 _014_
*45 _015_
*46 _016_
*47 _017_
*48 _018_
*49 _019_
*50 _020_
*51 _021_
*52 _022_
*53 _023_
*54 _024_
*55 _025_
*56 _026_
*57 _027_
*58 _028_
*59 _029_
*60 _030_
*61 _031_
*62 _032_
*63 _033_
*64 _034_
*65 _035_
*66 _036_
*67 _037_
*68 _038_
*69 _039_
*70 _040_
*71 _041_
*72 _042_
*73 _043_
*74 _044_
*75 _045_
*76 _046_
*77 _047_
*78 _048_
*79 _049_
*80 _050_
*81 _051_
*82 _052_
*83 _053_
*84 _054_
*85 _055_
*86 _056_
*87 _057_
*88 _058_
*89 _059_
*90 _060_
*91 _061_
*92 _062_
*93 _063_
*94 _064_
*95 _065_
*96 _066_
*97 _067_
*98 _068_
*99 _069_
*100 _070_
*101 _071_
*102 _072_
*103 _073_
*104 _074_
*105 _075_
*106 _076_
*107 _077_
*108 _078_
*109 _079_
*110 _080_
*111 _081_
*112 _082_
*113 _083_
*114 _084_
*115 _085_
*116 _086_
*117 _087_
*118 _088_
*119 _089_
*120 _090_
*121 _091_
*122 _092_
*123 _093_
*124 _094_
*125 _095_
*126 _096_
*127 _097_
*128 _098_
*129 _099_
*130 _100_
*131 _101_
*132 _102_
*133 _103_
*134 _104_
*135 _105_
*136 _106_
*137 _107_
*138 _108_
*139 _109_
*140 _110_
*141 _111_
*142 _112_
*143 _113_
*144 _114_
*145 _115_
*146 _116_
*147 _117_
*148 _118_
*149 _119_
*150 _120_
*151 _121_
*152 _122_
*153 _123_
*154 _124_
*155 _125_
*156 _126_
*157 _127_
*158 _128_
*159 _129_
*160 _130_
*161 _131_
*162 _132_
*163 _133_
*164 _134_
*165 _135_
*166 _136_
*167 _137_
*168 _138_
*169 _139_
*170 _140_
*171 _141_
*172 _142_
*173 _143_
*174 _144_
*175 _145_
*176 _146_
*177 _147_
*178 _148_
*179 _149_
*180 _150_
*181 _151_
*182 _152_
*183 _153_
*184 _154_
*185 _155_
*186 _156_
*187 _157_
*188 _158_
*189 _159_
*190 _160_
*191 _161_
*192 _162_
*193 _163_
*194 _164_
*195 _165_
*196 _166_
*197 _167_
*198 _168_
*199 _169_
*200 net1
*201 net10
*202 net11
*203 net12
*204 net13
*205 net14
*206 net15
*207 net16
*208 net17
*209 net18
*210 net19
*211 net2
*212 net20
*213 net21
*214 net22
*215 net23
*216 net24
*217 net25
*218 net26
*219 net27
*220 net28
*221 net3
*222 net4
*223 net5
*224 net6
*225 net7
*226 net8
*227 net9
*228 ANTENNA_1
*229 ANTENNA_2
*230 FILLER_0_0_103
*231 FILLER_0_0_111
*232 FILLER_0_0_113
*233 FILLER_0_0_125
*234 FILLER_0_0_137
*235 FILLER_0_0_14
*236 FILLER_0_0_141
*237 FILLER_0_0_153
*238 FILLER_0_0_164
*239 FILLER_0_0_173
*240 FILLER_0_0_179
*241 FILLER_0_0_185
*242 FILLER_0_0_26
*243 FILLER_0_0_3
*244 FILLER_0_0_35
*245 FILLER_0_0_47
*246 FILLER_0_0_55
*247 FILLER_0_0_57
*248 FILLER_0_0_69
*249 FILLER_0_0_81
*250 FILLER_0_0_88
*251 FILLER_0_0_96
*252 FILLER_0_10_109
*253 FILLER_0_10_121
*254 FILLER_0_10_133
*255 FILLER_0_10_139
*256 FILLER_0_10_141
*257 FILLER_0_10_153
*258 FILLER_0_10_165
*259 FILLER_0_10_177
*260 FILLER_0_10_183
*261 FILLER_0_10_189
*262 FILLER_0_10_19
*263 FILLER_0_10_3
*264 FILLER_0_10_42
*265 FILLER_0_10_54
*266 FILLER_0_10_66
*267 FILLER_0_10_74
*268 FILLER_0_10_82
*269 FILLER_0_10_85
*270 FILLER_0_10_9
*271 FILLER_0_10_97
*272 FILLER_0_11_111
*273 FILLER_0_11_113
*274 FILLER_0_11_121
*275 FILLER_0_11_125
*276 FILLER_0_11_13
*277 FILLER_0_11_137
*278 FILLER_0_11_147
*279 FILLER_0_11_159
*280 FILLER_0_11_167
*281 FILLER_0_11_169
*282 FILLER_0_11_181
*283 FILLER_0_11_189
*284 FILLER_0_11_32
*285 FILLER_0_11_38
*286 FILLER_0_11_50
*287 FILLER_0_11_71
*288 FILLER_0_11_83
*289 FILLER_0_11_91
*290 FILLER_0_11_99
*291 FILLER_0_12_100
*292 FILLER_0_12_112
*293 FILLER_0_12_12
*294 FILLER_0_12_124
*295 FILLER_0_12_136
*296 FILLER_0_12_141
*297 FILLER_0_12_157
*298 FILLER_0_12_169
*299 FILLER_0_12_177
*300 FILLER_0_12_24
*301 FILLER_0_12_29
*302 FILLER_0_12_3
*303 FILLER_0_12_41
*304 FILLER_0_12_53
*305 FILLER_0_12_65
*306 FILLER_0_12_77
*307 FILLER_0_12_83
*308 FILLER_0_12_88
*309 FILLER_0_13_105
*310 FILLER_0_13_111
*311 FILLER_0_13_113
*312 FILLER_0_13_125
*313 FILLER_0_13_137
*314 FILLER_0_13_149
*315 FILLER_0_13_161
*316 FILLER_0_13_17
*317 FILLER_0_13_174
*318 FILLER_0_13_182
*319 FILLER_0_13_189
*320 FILLER_0_13_27
*321 FILLER_0_13_39
*322 FILLER_0_13_43
*323 FILLER_0_13_57
*324 FILLER_0_13_6
*325 FILLER_0_13_69
*326 FILLER_0_13_81
*327 FILLER_0_13_93
*328 FILLER_0_14_108
*329 FILLER_0_14_11
*330 FILLER_0_14_117
*331 FILLER_0_14_129
*332 FILLER_0_14_137
*333 FILLER_0_14_141
*334 FILLER_0_14_158
*335 FILLER_0_14_187
*336 FILLER_0_14_23
*337 FILLER_0_14_27
*338 FILLER_0_14_29
*339 FILLER_0_14_44
*340 FILLER_0_14_56
*341 FILLER_0_14_68
*342 FILLER_0_14_7
*343 FILLER_0_14_80
*344 FILLER_0_14_85
*345 FILLER_0_14_97
*346 FILLER_0_15_105
*347 FILLER_0_15_111
*348 FILLER_0_15_113
*349 FILLER_0_15_125
*350 FILLER_0_15_144
*351 FILLER_0_15_15
*352 FILLER_0_15_156
*353 FILLER_0_15_169
*354 FILLER_0_15_181
*355 FILLER_0_15_185
*356 FILLER_0_15_27
*357 FILLER_0_15_3
*358 FILLER_0_15_46
*359 FILLER_0_15_54
*360 FILLER_0_15_57
*361 FILLER_0_15_69
*362 FILLER_0_15_8
*363 FILLER_0_15_81
*364 FILLER_0_15_93
*365 FILLER_0_16_109
*366 FILLER_0_16_125
*367 FILLER_0_16_137
*368 FILLER_0_16_155
*369 FILLER_0_16_165
*370 FILLER_0_16_17
*371 FILLER_0_16_177
*372 FILLER_0_16_189
*373 FILLER_0_16_25
*374 FILLER_0_16_29
*375 FILLER_0_16_3
*376 FILLER_0_16_33
*377 FILLER_0_16_47
*378 FILLER_0_16_51
*379 FILLER_0_16_57
*380 FILLER_0_16_69
*381 FILLER_0_16_7
*382 FILLER_0_16_81
*383 FILLER_0_16_85
*384 FILLER_0_16_97
*385 FILLER_0_17_103
*386 FILLER_0_17_111
*387 FILLER_0_17_113
*388 FILLER_0_17_121
*389 FILLER_0_17_133
*390 FILLER_0_17_141
*391 FILLER_0_17_148
*392 FILLER_0_17_160
*393 FILLER_0_17_169
*394 FILLER_0_17_184
*395 FILLER_0_17_19
*396 FILLER_0_17_27
*397 FILLER_0_17_33
*398 FILLER_0_17_45
*399 FILLER_0_17_53
*400 FILLER_0_17_57
*401 FILLER_0_17_65
*402 FILLER_0_17_7
*403 FILLER_0_17_72
*404 FILLER_0_17_84
*405 FILLER_0_18_105
*406 FILLER_0_18_111
*407 FILLER_0_18_121
*408 FILLER_0_18_138
*409 FILLER_0_18_154
*410 FILLER_0_18_166
*411 FILLER_0_18_17
*412 FILLER_0_18_178
*413 FILLER_0_18_25
*414 FILLER_0_18_29
*415 FILLER_0_18_3
*416 FILLER_0_18_41
*417 FILLER_0_18_53
*418 FILLER_0_18_68
*419 FILLER_0_18_73
*420 FILLER_0_18_83
*421 FILLER_0_18_85
*422 FILLER_0_18_89
*423 FILLER_0_18_94
*424 FILLER_0_19_104
*425 FILLER_0_19_113
*426 FILLER_0_19_125
*427 FILLER_0_19_133
*428 FILLER_0_19_141
*429 FILLER_0_19_153
*430 FILLER_0_19_165
*431 FILLER_0_19_169
*432 FILLER_0_19_181
*433 FILLER_0_19_189
*434 FILLER_0_19_19
*435 FILLER_0_19_55
*436 FILLER_0_19_57
*437 FILLER_0_19_7
*438 FILLER_0_19_73
*439 FILLER_0_19_79
*440 FILLER_0_19_91
*441 FILLER_0_1_102
*442 FILLER_0_1_113
*443 FILLER_0_1_117
*444 FILLER_0_1_126
*445 FILLER_0_1_138
*446 FILLER_0_1_14
*447 FILLER_0_1_142
*448 FILLER_0_1_147
*449 FILLER_0_1_159
*450 FILLER_0_1_167
*451 FILLER_0_1_169
*452 FILLER_0_1_181
*453 FILLER_0_1_189
*454 FILLER_0_1_26
*455 FILLER_0_1_33
*456 FILLER_0_1_45
*457 FILLER_0_1_53
*458 FILLER_0_1_57
*459 FILLER_0_1_69
*460 FILLER_0_1_81
*461 FILLER_0_1_90
*462 FILLER_0_20_105
*463 FILLER_0_20_117
*464 FILLER_0_20_132
*465 FILLER_0_20_141
*466 FILLER_0_20_145
*467 FILLER_0_20_15
*468 FILLER_0_20_162
*469 FILLER_0_20_174
*470 FILLER_0_20_186
*471 FILLER_0_20_21
*472 FILLER_0_20_27
*473 FILLER_0_20_29
*474 FILLER_0_20_3
*475 FILLER_0_20_41
*476 FILLER_0_20_53
*477 FILLER_0_20_61
*478 FILLER_0_20_65
*479 FILLER_0_20_77
*480 FILLER_0_20_83
*481 FILLER_0_20_93
*482 FILLER_0_21_101
*483 FILLER_0_21_109
*484 FILLER_0_21_113
*485 FILLER_0_21_126
*486 FILLER_0_21_134
*487 FILLER_0_21_140
*488 FILLER_0_21_152
*489 FILLER_0_21_164
*490 FILLER_0_21_169
*491 FILLER_0_21_181
*492 FILLER_0_21_185
*493 FILLER_0_21_19
*494 FILLER_0_21_31
*495 FILLER_0_21_43
*496 FILLER_0_21_55
*497 FILLER_0_21_57
*498 FILLER_0_21_69
*499 FILLER_0_21_7
*500 FILLER_0_21_81
*501 FILLER_0_21_89
*502 FILLER_0_22_101
*503 FILLER_0_22_113
*504 FILLER_0_22_125
*505 FILLER_0_22_137
*506 FILLER_0_22_141
*507 FILLER_0_22_145
*508 FILLER_0_22_15
*509 FILLER_0_22_159
*510 FILLER_0_22_167
*511 FILLER_0_22_175
*512 FILLER_0_22_187
*513 FILLER_0_22_27
*514 FILLER_0_22_29
*515 FILLER_0_22_3
*516 FILLER_0_22_41
*517 FILLER_0_22_53
*518 FILLER_0_22_65
*519 FILLER_0_22_77
*520 FILLER_0_22_83
*521 FILLER_0_22_85
*522 FILLER_0_22_93
*523 FILLER_0_23_101
*524 FILLER_0_23_109
*525 FILLER_0_23_113
*526 FILLER_0_23_125
*527 FILLER_0_23_131
*528 FILLER_0_23_154
*529 FILLER_0_23_166
*530 FILLER_0_23_176
*531 FILLER_0_23_188
*532 FILLER_0_23_19
*533 FILLER_0_23_27
*534 FILLER_0_23_39
*535 FILLER_0_23_47
*536 FILLER_0_23_53
*537 FILLER_0_23_57
*538 FILLER_0_23_7
*539 FILLER_0_23_79
*540 FILLER_0_24_108
*541 FILLER_0_24_120
*542 FILLER_0_24_139
*543 FILLER_0_24_148
*544 FILLER_0_24_15
*545 FILLER_0_24_157
*546 FILLER_0_24_169
*547 FILLER_0_24_177
*548 FILLER_0_24_189
*549 FILLER_0_24_27
*550 FILLER_0_24_29
*551 FILLER_0_24_3
*552 FILLER_0_24_41
*553 FILLER_0_24_53
*554 FILLER_0_24_67
*555 FILLER_0_24_75
*556 FILLER_0_24_79
*557 FILLER_0_24_83
*558 FILLER_0_24_85
*559 FILLER_0_24_97
*560 FILLER_0_25_108
*561 FILLER_0_25_113
*562 FILLER_0_25_12
*563 FILLER_0_25_123
*564 FILLER_0_25_136
*565 FILLER_0_25_148
*566 FILLER_0_25_160
*567 FILLER_0_25_169
*568 FILLER_0_25_3
*569 FILLER_0_25_36
*570 FILLER_0_25_48
*571 FILLER_0_25_57
*572 FILLER_0_25_69
*573 FILLER_0_25_81
*574 FILLER_0_25_96
*575 FILLER_0_26_104
*576 FILLER_0_26_116
*577 FILLER_0_26_137
*578 FILLER_0_26_15
*579 FILLER_0_26_154
*580 FILLER_0_26_163
*581 FILLER_0_26_174
*582 FILLER_0_26_178
*583 FILLER_0_26_188
*584 FILLER_0_26_27
*585 FILLER_0_26_3
*586 FILLER_0_26_35
*587 FILLER_0_26_52
*588 FILLER_0_26_58
*589 FILLER_0_26_66
*590 FILLER_0_26_82
*591 FILLER_0_26_88
*592 FILLER_0_26_92
*593 FILLER_0_26_97
*594 FILLER_0_27_109
*595 FILLER_0_27_11
*596 FILLER_0_27_113
*597 FILLER_0_27_125
*598 FILLER_0_27_137
*599 FILLER_0_27_141
*600 FILLER_0_27_147
*601 FILLER_0_27_163
*602 FILLER_0_27_167
*603 FILLER_0_27_169
*604 FILLER_0_27_181
*605 FILLER_0_27_185
*606 FILLER_0_27_20
*607 FILLER_0_27_29
*608 FILLER_0_27_41
*609 FILLER_0_27_48
*610 FILLER_0_27_57
*611 FILLER_0_27_69
*612 FILLER_0_27_81
*613 FILLER_0_27_85
*614 FILLER_0_27_97
*615 FILLER_0_2_103
*616 FILLER_0_2_115
*617 FILLER_0_2_127
*618 FILLER_0_2_139
*619 FILLER_0_2_141
*620 FILLER_0_2_15
*621 FILLER_0_2_155
*622 FILLER_0_2_167
*623 FILLER_0_2_179
*624 FILLER_0_2_187
*625 FILLER_0_2_27
*626 FILLER_0_2_3
*627 FILLER_0_2_36
*628 FILLER_0_2_48
*629 FILLER_0_2_60
*630 FILLER_0_2_72
*631 FILLER_0_2_85
*632 FILLER_0_2_91
*633 FILLER_0_3_102
*634 FILLER_0_3_110
*635 FILLER_0_3_113
*636 FILLER_0_3_125
*637 FILLER_0_3_137
*638 FILLER_0_3_143
*639 FILLER_0_3_149
*640 FILLER_0_3_15
*641 FILLER_0_3_161
*642 FILLER_0_3_167
*643 FILLER_0_3_169
*644 FILLER_0_3_175
*645 FILLER_0_3_181
*646 FILLER_0_3_185
*647 FILLER_0_3_24
*648 FILLER_0_3_36
*649 FILLER_0_3_48
*650 FILLER_0_3_52
*651 FILLER_0_3_57
*652 FILLER_0_3_69
*653 FILLER_0_3_7
*654 FILLER_0_3_81
*655 FILLER_0_3_93
*656 FILLER_0_4_125
*657 FILLER_0_4_137
*658 FILLER_0_4_148
*659 FILLER_0_4_15
*660 FILLER_0_4_156
*661 FILLER_0_4_160
*662 FILLER_0_4_173
*663 FILLER_0_4_185
*664 FILLER_0_4_189
*665 FILLER_0_4_27
*666 FILLER_0_4_29
*667 FILLER_0_4_3
*668 FILLER_0_4_41
*669 FILLER_0_4_53
*670 FILLER_0_4_65
*671 FILLER_0_4_77
*672 FILLER_0_4_83
*673 FILLER_0_4_92
*674 FILLER_0_4_96
*675 FILLER_0_5_101
*676 FILLER_0_5_109
*677 FILLER_0_5_113
*678 FILLER_0_5_123
*679 FILLER_0_5_130
*680 FILLER_0_5_138
*681 FILLER_0_5_150
*682 FILLER_0_5_156
*683 FILLER_0_5_169
*684 FILLER_0_5_17
*685 FILLER_0_5_181
*686 FILLER_0_5_189
*687 FILLER_0_5_29
*688 FILLER_0_5_37
*689 FILLER_0_5_46
*690 FILLER_0_5_54
*691 FILLER_0_5_57
*692 FILLER_0_5_69
*693 FILLER_0_5_7
*694 FILLER_0_5_77
*695 FILLER_0_5_89
*696 FILLER_0_6_109
*697 FILLER_0_6_135
*698 FILLER_0_6_139
*699 FILLER_0_6_15
*700 FILLER_0_6_150
*701 FILLER_0_6_162
*702 FILLER_0_6_172
*703 FILLER_0_6_184
*704 FILLER_0_6_27
*705 FILLER_0_6_29
*706 FILLER_0_6_3
*707 FILLER_0_6_37
*708 FILLER_0_6_49
*709 FILLER_0_6_61
*710 FILLER_0_6_73
*711 FILLER_0_6_81
*712 FILLER_0_6_85
*713 FILLER_0_6_97
*714 FILLER_0_7_102
*715 FILLER_0_7_110
*716 FILLER_0_7_113
*717 FILLER_0_7_12
*718 FILLER_0_7_125
*719 FILLER_0_7_131
*720 FILLER_0_7_138
*721 FILLER_0_7_150
*722 FILLER_0_7_158
*723 FILLER_0_7_167
*724 FILLER_0_7_169
*725 FILLER_0_7_181
*726 FILLER_0_7_185
*727 FILLER_0_7_24
*728 FILLER_0_7_36
*729 FILLER_0_7_48
*730 FILLER_0_7_65
*731 FILLER_0_7_77
*732 FILLER_0_7_89
*733 FILLER_0_7_95
*734 FILLER_0_8_100
*735 FILLER_0_8_112
*736 FILLER_0_8_120
*737 FILLER_0_8_126
*738 FILLER_0_8_138
*739 FILLER_0_8_141
*740 FILLER_0_8_15
*741 FILLER_0_8_153
*742 FILLER_0_8_171
*743 FILLER_0_8_183
*744 FILLER_0_8_23
*745 FILLER_0_8_27
*746 FILLER_0_8_29
*747 FILLER_0_8_3
*748 FILLER_0_8_41
*749 FILLER_0_8_45
*750 FILLER_0_8_57
*751 FILLER_0_8_69
*752 FILLER_0_8_81
*753 FILLER_0_8_85
*754 FILLER_0_9_104
*755 FILLER_0_9_113
*756 FILLER_0_9_125
*757 FILLER_0_9_136
*758 FILLER_0_9_145
*759 FILLER_0_9_157
*760 FILLER_0_9_166
*761 FILLER_0_9_169
*762 FILLER_0_9_181
*763 FILLER_0_9_189
*764 FILLER_0_9_19
*765 FILLER_0_9_31
*766 FILLER_0_9_43
*767 FILLER_0_9_55
*768 FILLER_0_9_57
*769 FILLER_0_9_69
*770 FILLER_0_9_7
*771 FILLER_0_9_80
*772 FILLER_0_9_92
*773 PHY_EDGE_ROW_0_Left_28
*774 PHY_EDGE_ROW_0_Right_0
*775 PHY_EDGE_ROW_10_Left_38
*776 PHY_EDGE_ROW_10_Right_10
*777 PHY_EDGE_ROW_11_Left_39
*778 PHY_EDGE_ROW_11_Right_11
*779 PHY_EDGE_ROW_12_Left_40
*780 PHY_EDGE_ROW_12_Right_12
*781 PHY_EDGE_ROW_13_Left_41
*782 PHY_EDGE_ROW_13_Right_13
*783 PHY_EDGE_ROW_14_Left_42
*784 PHY_EDGE_ROW_14_Right_14
*785 PHY_EDGE_ROW_15_Left_43
*786 PHY_EDGE_ROW_15_Right_15
*787 PHY_EDGE_ROW_16_Left_44
*788 PHY_EDGE_ROW_16_Right_16
*789 PHY_EDGE_ROW_17_Left_45
*790 PHY_EDGE_ROW_17_Right_17
*791 PHY_EDGE_ROW_18_Left_46
*792 PHY_EDGE_ROW_18_Right_18
*793 PHY_EDGE_ROW_19_Left_47
*794 PHY_EDGE_ROW_19_Right_19
*795 PHY_EDGE_ROW_1_Left_29
*796 PHY_EDGE_ROW_1_Right_1
*797 PHY_EDGE_ROW_20_Left_48
*798 PHY_EDGE_ROW_20_Right_20
*799 PHY_EDGE_ROW_21_Left_49
*800 PHY_EDGE_ROW_21_Right_21
*801 PHY_EDGE_ROW_22_Left_50
*802 PHY_EDGE_ROW_22_Right_22
*803 PHY_EDGE_ROW_23_Left_51
*804 PHY_EDGE_ROW_23_Right_23
*805 PHY_EDGE_ROW_24_Left_52
*806 PHY_EDGE_ROW_24_Right_24
*807 PHY_EDGE_ROW_25_Left_53
*808 PHY_EDGE_ROW_25_Right_25
*809 PHY_EDGE_ROW_26_Left_54
*810 PHY_EDGE_ROW_26_Right_26
*811 PHY_EDGE_ROW_27_Left_55
*812 PHY_EDGE_ROW_27_Right_27
*813 PHY_EDGE_ROW_2_Left_30
*814 PHY_EDGE_ROW_2_Right_2
*815 PHY_EDGE_ROW_3_Left_31
*816 PHY_EDGE_ROW_3_Right_3
*817 PHY_EDGE_ROW_4_Left_32
*818 PHY_EDGE_ROW_4_Right_4
*819 PHY_EDGE_ROW_5_Left_33
*820 PHY_EDGE_ROW_5_Right_5
*821 PHY_EDGE_ROW_6_Left_34
*822 PHY_EDGE_ROW_6_Right_6
*823 PHY_EDGE_ROW_7_Left_35
*824 PHY_EDGE_ROW_7_Right_7
*825 PHY_EDGE_ROW_8_Left_36
*826 PHY_EDGE_ROW_8_Right_8
*827 PHY_EDGE_ROW_9_Left_37
*828 PHY_EDGE_ROW_9_Right_9
*829 TAP_TAPCELL_ROW_0_56
*830 TAP_TAPCELL_ROW_0_57
*831 TAP_TAPCELL_ROW_0_58
*832 TAP_TAPCELL_ROW_0_59
*833 TAP_TAPCELL_ROW_0_60
*834 TAP_TAPCELL_ROW_0_61
*835 TAP_TAPCELL_ROW_10_89
*836 TAP_TAPCELL_ROW_10_90
*837 TAP_TAPCELL_ROW_10_91
*838 TAP_TAPCELL_ROW_11_92
*839 TAP_TAPCELL_ROW_11_93
*840 TAP_TAPCELL_ROW_11_94
*841 TAP_TAPCELL_ROW_12_95
*842 TAP_TAPCELL_ROW_12_96
*843 TAP_TAPCELL_ROW_12_97
*844 TAP_TAPCELL_ROW_13_100
*845 TAP_TAPCELL_ROW_13_98
*846 TAP_TAPCELL_ROW_13_99
*847 TAP_TAPCELL_ROW_14_101
*848 TAP_TAPCELL_ROW_14_102
*849 TAP_TAPCELL_ROW_14_103
*850 TAP_TAPCELL_ROW_15_104
*851 TAP_TAPCELL_ROW_15_105
*852 TAP_TAPCELL_ROW_15_106
*853 TAP_TAPCELL_ROW_16_107
*854 TAP_TAPCELL_ROW_16_108
*855 TAP_TAPCELL_ROW_16_109
*856 TAP_TAPCELL_ROW_17_110
*857 TAP_TAPCELL_ROW_17_111
*858 TAP_TAPCELL_ROW_17_112
*859 TAP_TAPCELL_ROW_18_113
*860 TAP_TAPCELL_ROW_18_114
*861 TAP_TAPCELL_ROW_18_115
*862 TAP_TAPCELL_ROW_19_116
*863 TAP_TAPCELL_ROW_19_117
*864 TAP_TAPCELL_ROW_19_118
*865 TAP_TAPCELL_ROW_1_62
*866 TAP_TAPCELL_ROW_1_63
*867 TAP_TAPCELL_ROW_1_64
*868 TAP_TAPCELL_ROW_20_119
*869 TAP_TAPCELL_ROW_20_120
*870 TAP_TAPCELL_ROW_20_121
*871 TAP_TAPCELL_ROW_21_122
*872 TAP_TAPCELL_ROW_21_123
*873 TAP_TAPCELL_ROW_21_124
*874 TAP_TAPCELL_ROW_22_125
*875 TAP_TAPCELL_ROW_22_126
*876 TAP_TAPCELL_ROW_22_127
*877 TAP_TAPCELL_ROW_23_128
*878 TAP_TAPCELL_ROW_23_129
*879 TAP_TAPCELL_ROW_23_130
*880 TAP_TAPCELL_ROW_24_131
*881 TAP_TAPCELL_ROW_24_132
*882 TAP_TAPCELL_ROW_24_133
*883 TAP_TAPCELL_ROW_25_134
*884 TAP_TAPCELL_ROW_25_135
*885 TAP_TAPCELL_ROW_25_136
*886 TAP_TAPCELL_ROW_26_137
*887 TAP_TAPCELL_ROW_26_138
*888 TAP_TAPCELL_ROW_26_139
*889 TAP_TAPCELL_ROW_27_140
*890 TAP_TAPCELL_ROW_27_141
*891 TAP_TAPCELL_ROW_27_142
*892 TAP_TAPCELL_ROW_27_143
*893 TAP_TAPCELL_ROW_27_144
*894 TAP_TAPCELL_ROW_27_145
*895 TAP_TAPCELL_ROW_2_65
*896 TAP_TAPCELL_ROW_2_66
*897 TAP_TAPCELL_ROW_2_67
*898 TAP_TAPCELL_ROW_3_68
*899 TAP_TAPCELL_ROW_3_69
*900 TAP_TAPCELL_ROW_3_70
*901 TAP_TAPCELL_ROW_4_71
*902 TAP_TAPCELL_ROW_4_72
*903 TAP_TAPCELL_ROW_4_73
*904 TAP_TAPCELL_ROW_5_74
*905 TAP_TAPCELL_ROW_5_75
*906 TAP_TAPCELL_ROW_5_76
*907 TAP_TAPCELL_ROW_6_77
*908 TAP_TAPCELL_ROW_6_78
*909 TAP_TAPCELL_ROW_6_79
*910 TAP_TAPCELL_ROW_7_80
*911 TAP_TAPCELL_ROW_7_81
*912 TAP_TAPCELL_ROW_7_82
*913 TAP_TAPCELL_ROW_8_83
*914 TAP_TAPCELL_ROW_8_84
*915 TAP_TAPCELL_ROW_8_85
*916 TAP_TAPCELL_ROW_9_86
*917 TAP_TAPCELL_ROW_9_87
*918 TAP_TAPCELL_ROW_9_88
*919 _170_
*920 _171_
*921 _172_
*922 _173_
*923 _174_
*924 _175_
*925 _176_
*926 _177_
*927 _178_
*928 _179_
*929 _180_
*930 _181_
*931 _182_
*932 _183_
*933 _184_
*934 _185_
*935 _186_
*936 _187_
*937 _188_
*938 _189_
*939 _190_
*940 _191_
*941 _192_
*942 _193_
*943 _194_
*944 _195_
*945 _196_
*946 _197_
*947 _198_
*948 _199_
*949 _200_
*950 _201_
*951 _202_
*952 _203_
*953 _204_
*954 _205_
*955 _206_
*956 _207_
*957 _208_
*958 _209_
*959 _210_
*960 _211_
*961 _212_
*962 _213_
*963 _214_
*964 _215_
*965 _216_
*966 _217_
*967 _218_
*968 _219_
*969 _220_
*970 _221_
*971 _222_
*972 _223_
*973 _224_
*974 _225_
*975 _226_
*976 _227_
*977 _228_
*978 _229_
*979 _230_
*980 _231_
*981 _232_
*982 _233_
*983 _234_
*984 _235_
*985 _236_
*986 _237_
*987 _238_
*988 _239_
*989 _240_
*990 _241_
*991 _242_
*992 _243_
*993 _244_
*994 _245_
*995 _246_
*996 _247_
*997 _248_
*998 _249_
*999 _250_
*1000 _251_
*1001 _252_
*1002 _253_
*1003 _254_
*1004 _255_
*1005 _256_
*1006 _257_
*1007 _258_
*1008 _259_
*1009 _260_
*1010 _261_
*1011 _262_
*1012 _263_
*1013 _264_
*1014 _265_
*1015 _266_
*1016 _267_
*1017 _268_
*1018 _269_
*1019 _270_
*1020 _271_
*1021 _272_
*1022 _273_
*1023 _274_
*1024 _275_
*1025 _276_
*1026 _277_
*1027 _278_
*1028 _279_
*1029 _280_
*1030 _281_
*1031 _282_
*1032 _283_
*1033 _284_
*1034 _285_
*1035 _286_
*1036 _287_
*1037 _288_
*1038 _289_
*1039 _290_
*1040 _291_
*1041 _292_
*1042 _293_
*1043 _294_
*1044 _295_
*1045 _296_
*1046 _297_
*1047 _298_
*1048 _299_
*1049 _300_
*1050 _301_
*1051 _302_
*1052 _303_
*1053 _304_
*1054 _305_
*1055 _306_
*1056 _307_
*1057 _308_
*1058 _309_
*1059 _310_
*1060 _311_
*1061 _312_
*1062 _313_
*1063 _314_
*1064 _315_
*1065 _316_
*1066 _317_
*1067 _318_
*1068 _319_
*1069 _320_
*1070 _321_
*1071 _322_
*1072 _323_
*1073 _324_
*1074 _325_
*1075 _326_
*1076 _327_
*1077 _328_
*1078 _329_
*1079 _330_
*1080 _331_
*1081 _332_
*1082 _333_
*1083 _334_
*1084 _335_
*1085 _336_
*1086 _337_
*1087 _338_
*1088 _339_
*1089 _340_
*1090 _341_
*1091 _342_
*1092 _343_
*1093 _344_
*1094 _345_
*1095 _346_
*1096 _347_
*1097 clone1
*1098 input1
*1099 input10
*1100 input11
*1101 input12
*1102 input13
*1103 input14
*1104 input15
*1105 input16
*1106 input17
*1107 input18
*1108 input19
*1109 input2
*1110 input3
*1111 input4
*1112 input5
*1113 input6
*1114 input7
*1115 input8
*1116 input9
*1117 output20
*1118 output21
*1119 output22
*1120 output23
*1121 output24
*1122 output25
*1123 output26
*1124 output27

*PORTS
din1[0] I
din1[1] I
din1[2] I
din1[3] I
din1[4] I
din1[5] I
din1[6] I
din1[7] I
din2[0] I
din2[1] I
din2[2] I
din2[3] I
din2[4] I
din2[5] I
din2[6] I
din2[7] I
dout[0] O
dout[1] O
dout[2] O
dout[3] O
dout[4] O
dout[5] O
dout[6] O
dout[7] O
op[0] I
op[1] I
op[2] I

*D_NET *3 0.000713266
*CONN
*P din1[0] I
*I *1098:A I *D sky130_fd_sc_hd__buf_1
*CAP
1 din1[0] 0.000356633
2 *1098:A 0
3 *3:17 0.000356633
4 *3:17 *1109:A 0
5 *3:17 *18:17 0
6 *3:17 *103:16 0
*RES
1 din1[0] *3:17 27.1584 
2 *3:17 *1098:A 23 
*END

*D_NET *4 0.000693865
*CONN
*P din1[1] I
*I *1109:A I *D sky130_fd_sc_hd__dlymetal6s2s_1
*CAP
1 din1[1] 0.000269594
2 *1109:A 0.000269594
3 *1109:A *5:17 0
4 *1109:A *108:10 7.73383e-05
5 *1109:A *131:47 7.73383e-05
6 *3:17 *1109:A 0
*RES
1 din1[1] *1109:A 47.7832 
*END

*D_NET *5 0.000812378
*CONN
*P din1[2] I
*I *1110:A I *D sky130_fd_sc_hd__clkbuf_2
*CAP
1 din1[2] 0.000406189
2 *1110:A 0
3 *5:17 0.000406189
4 *5:17 *6:13 0
5 *5:17 *103:16 0
6 *1109:A *5:17 0
*RES
1 din1[2] *5:17 27.6348 
2 *5:17 *1110:A 23 
*END

*D_NET *6 0.00125524
*CONN
*P din1[3] I
*I *1111:A I *D sky130_fd_sc_hd__buf_2
*CAP
1 din1[3] 0.000440866
2 *1111:A 0
3 *6:13 0.000440866
4 *6:13 *7:17 0
5 *6:13 *103:16 3.33048e-05
6 *6:13 *131:26 0.00021677
7 *6:13 *146:24 0.000123436
8 *5:17 *6:13 0
*RES
1 din1[3] *6:13 29.6153 
2 *6:13 *1111:A 23 
*END

*D_NET *7 0.00073937
*CONN
*P din1[4] I
*I *1112:A I *D sky130_fd_sc_hd__buf_2
*CAP
1 din1[4] 0.000369685
2 *1112:A 0
3 *7:17 0.000369685
4 *7:17 *8:17 0
5 *7:17 *103:16 0
6 *6:13 *7:17 0
*RES
1 din1[4] *7:17 27.1584 
2 *7:17 *1112:A 23 
*END

*D_NET *8 0.000737206
*CONN
*P din1[5] I
*I *1113:A I *D sky130_fd_sc_hd__buf_2
*CAP
1 din1[5] 0.000368603
2 *1113:A 0
3 *8:17 0.000368603
4 *8:17 *9:17 0
5 *8:17 *103:16 0
6 *7:17 *8:17 0
*RES
1 din1[5] *8:17 27.1584 
2 *8:17 *1113:A 23 
*END

*D_NET *9 0.000771862
*CONN
*P din1[6] I
*I *1114:A I *D sky130_fd_sc_hd__clkbuf_2
*CAP
1 din1[6] 0.000385931
2 *1114:A 0
3 *9:17 0.000385931
4 *9:17 *10:11 0
5 *9:17 *103:16 0
6 *8:17 *9:17 0
*RES
1 din1[6] *9:17 27.6348 
2 *9:17 *1114:A 23 
*END

*D_NET *10 0.00146104
*CONN
*P din1[7] I
*I *1115:A I *D sky130_fd_sc_hd__clkbuf_2
*CAP
1 din1[7] 0.00073052
2 *1115:A 0
3 *10:11 0.00073052
4 *10:11 *103:16 0
5 *10:11 *108:10 0
6 *9:17 *10:11 0
*RES
1 din1[7] *10:11 31.199 
2 *10:11 *1115:A 23 
*END

*D_NET *11 0.00106596
*CONN
*P din2[0] I
*I *1116:A I *D sky130_fd_sc_hd__clkbuf_2
*CAP
1 din2[0] 0.00053298
2 *1116:A 0
3 *11:11 0.00053298
4 *11:11 *12:17 0
*RES
1 din2[0] *11:11 28.3818 
2 *11:11 *1116:A 23 
*END

*D_NET *12 0.000706921
*CONN
*P din2[1] I
*I *1099:A I *D sky130_fd_sc_hd__clkbuf_2
*CAP
1 din2[1] 0.00034372
2 *1099:A 0
3 *12:17 0.00034372
4 *12:17 *13:13 0
5 *12:17 *227:16 1.94812e-05
6 *11:11 *12:17 0
*RES
1 din2[1] *12:17 27.6348 
2 *12:17 *1099:A 23 
*END

*D_NET *13 0.00116059
*CONN
*P din2[2] I
*I *1100:A I *D sky130_fd_sc_hd__clkbuf_2
*CAP
1 din2[2] 0.00042929
2 *1100:A 0
3 *13:13 0.00042929
4 *13:13 *1080:A1 0.000145238
5 *13:13 *1080:A2 0.000101764
6 *13:13 *14:17 0
7 *13:13 *188:29 5.50049e-05
8 *13:13 *227:16 0
9 *12:17 *13:13 0
*RES
1 din2[2] *13:13 30.0533 
2 *13:13 *1100:A 23 
*END

*D_NET *14 0.000707496
*CONN
*P din2[3] I
*I *1101:A I *D sky130_fd_sc_hd__clkbuf_2
*CAP
1 din2[3] 0.000353748
2 *1101:A 0
3 *14:17 0.000353748
4 *14:17 *1102:A 0
5 *14:17 *227:16 0
6 *13:13 *14:17 0
*RES
1 din2[3] *14:17 27.6348 
2 *14:17 *1101:A 23 
*END

*D_NET *15 0.000684344
*CONN
*P din2[4] I
*I *1102:A I *D sky130_fd_sc_hd__buf_2
*CAP
1 din2[4] 0.000289683
2 *1102:A 0.000289683
3 *1102:A *16:17 0
4 *1102:A *227:16 0.000104978
5 *14:17 *1102:A 0
*RES
1 din2[4] *1102:A 48.1354 
*END

*D_NET *16 0.000680143
*CONN
*P din2[5] I
*I *1103:A I *D sky130_fd_sc_hd__buf_2
*CAP
1 din2[5] 0.000340071
2 *1103:A 0
3 *16:17 0.000340071
4 *16:17 *17:17 0
5 *16:17 *227:22 0
6 *1102:A *16:17 0
*RES
1 din2[5] *16:17 27.1584 
2 *16:17 *1103:A 23 
*END

*D_NET *17 0.000749928
*CONN
*P din2[6] I
*I *1104:A I *D sky130_fd_sc_hd__clkbuf_2
*CAP
1 din2[6] 0.000373108
2 *1104:A 0
3 *17:17 0.000373108
4 *17:17 *18:17 0
5 *17:17 *205:14 3.7122e-06
6 *17:17 *227:22 0
7 *16:17 *17:17 0
*RES
1 din2[6] *17:17 27.6348 
2 *17:17 *1104:A 23 
*END

*D_NET *18 0.000854716
*CONN
*P din2[7] I
*I *1105:A I *D sky130_fd_sc_hd__clkbuf_2
*CAP
1 din2[7] 0.000424671
2 *1105:A 0
3 *18:17 0.000424671
4 *18:17 *92:14 5.37348e-06
5 *18:17 *103:16 0
6 *3:17 *18:17 0
7 *17:17 *18:17 0
*RES
1 din2[7] *18:17 28.3391 
2 *18:17 *1105:A 23 
*END

*D_NET *19 0.00199627
*CONN
*P dout[0] O
*I *1117:X O *D sky130_fd_sc_hd__buf_2
*CAP
1 dout[0] 0.000393757
2 *1117:X 0.000574357
3 *19:14 0.000968114
4 *19:14 *180:35 6.00367e-05
*RES
1 *1117:X *19:14 47.9532 
2 *19:14 dout[0] 9.4448 
*END

*D_NET *20 0.00238819
*CONN
*P dout[1] O
*I *1118:X O *D sky130_fd_sc_hd__buf_2
*CAP
1 dout[1] 0.000852417
2 *1118:X 0.000208455
3 *20:12 0.00106087
4 *20:12 *150:35 0.000266444
5 *20:12 *156:8 0
*RES
1 *1118:X *20:12 49.3039 
2 *20:12 dout[1] 1.78827 
*END

*D_NET *21 0.00103645
*CONN
*P dout[2] O
*I *1119:X O *D sky130_fd_sc_hd__buf_2
*CAP
1 dout[2] 0.000356754
2 *1119:X 0.000356754
3 dout[2] *180:54 0.000162685
4 dout[2] *184:18 0.000160258
*RES
1 *1119:X dout[2] 49.0114 
*END

*D_NET *22 0.00100254
*CONN
*P dout[3] O
*I *1120:X O *D sky130_fd_sc_hd__buf_2
*CAP
1 dout[3] 0.000372373
2 *1120:X 0.000372373
3 dout[3] *180:54 0.000130212
4 dout[3] *184:18 0.00012758
*RES
1 *1120:X dout[3] 48.6592 
*END

*D_NET *23 0.000736474
*CONN
*P dout[4] O
*I *1121:X O *D sky130_fd_sc_hd__buf_2
*CAP
1 dout[4] 0.000350889
2 *1121:X 0.000350889
3 dout[4] *129:81 1.20476e-05
4 dout[4] *184:18 2.26497e-05
*RES
1 *1121:X dout[4] 47.2507 
*END

*D_NET *24 0.00090322
*CONN
*P dout[5] O
*I *1122:X O *D sky130_fd_sc_hd__buf_2
*CAP
1 dout[5] 0.000339993
2 *1122:X 0.000339993
3 dout[5] *129:81 9.63519e-05
4 dout[5] *184:18 0.000126882
*RES
1 *1122:X dout[5] 48.6592 
*END

*D_NET *25 0.000648525
*CONN
*P dout[6] O
*I *1123:X O *D sky130_fd_sc_hd__buf_2
*CAP
1 dout[6] 0.00031933
2 *1123:X 0.00031933
3 dout[6] *219:10 9.86551e-06
*RES
1 *1123:X dout[6] 47.2507 
*END

*D_NET *26 0.000936843
*CONN
*P dout[7] O
*I *1124:X O *D sky130_fd_sc_hd__buf_2
*CAP
1 dout[7] 0.000242232
2 *1124:X 0.000226189
3 *26:8 0.000468421
*RES
1 *1124:X *26:8 42.5468 
2 *26:8 dout[7] 8.9296 
*END

*D_NET *27 0.00101965
*CONN
*P op[0] I
*I *1106:A I *D sky130_fd_sc_hd__clkbuf_2
*CAP
1 op[0] 0.000442015
2 *1106:A 0.000442015
3 *1106:A *1015:C 9.84851e-05
4 *1106:A *52:14 3.71369e-05
5 *1106:A *53:54 0
*RES
1 op[0] *1106:A 47.7979 
*END

*D_NET *28 0.00095898
*CONN
*P op[1] I
*I *1107:A I *D sky130_fd_sc_hd__clkbuf_4
*CAP
1 op[1] 0.000452421
2 *1107:A 0.000452421
3 *1107:A *164:77 5.41385e-05
*RES
1 op[1] *1107:A 47.4457 
*END

*D_NET *29 0.0013118
*CONN
*P op[2] I
*I *1108:A I *D sky130_fd_sc_hd__clkbuf_4
*CAP
1 op[2] 0.00051971
2 *1108:A 0.00051971
3 *1108:A *1074:B1_N 0.000272383
*RES
1 op[2] *1108:A 49.3514 
*END

*D_NET *30 0.0187413
*CONN
*I *993:A1 I *D sky130_fd_sc_hd__o21a_2
*I *994:B I *D sky130_fd_sc_hd__or3_4
*I *991:X O *D sky130_fd_sc_hd__and3_1
*CAP
1 *993:A1 0.000279862
2 *994:B 0.000525594
3 *991:X 3.83684e-05
4 *30:35 0.00310514
5 *30:10 0.00434923
6 *30:8 0.00103673
7 *993:A1 *993:B1 0.000224605
8 *993:A1 *1061:A1 7.93878e-05
9 *993:A1 *31:49 0.000808135
10 *993:A1 *181:39 0.000423716
11 *994:B *994:C 0.000731601
12 *994:B *31:32 2.43944e-05
13 *994:B *33:10 1.70475e-05
14 *994:B *134:158 0.000175903
15 *30:8 *991:B 5.67058e-05
16 *30:10 *32:52 0.000167955
17 *30:10 *69:68 0.00121669
18 *30:10 *72:14 0
19 *30:10 *136:31 0.000159763
20 *30:10 *142:83 0.000428236
21 *30:10 *197:44 0.00103815
22 *30:35 *992:B1 9.28078e-06
23 *30:35 *43:22 0.000825972
24 *30:35 *44:16 0.000130752
25 *30:35 *49:43 2.31209e-05
26 *30:35 *66:12 0.000485843
27 *30:35 *69:68 0.000299589
28 *30:35 *95:32 1.07638e-05
29 *30:35 *113:30 6.31609e-06
30 *30:35 *132:26 6.1656e-05
31 *30:35 *133:130 0.000141179
32 *30:35 *137:50 0.000117526
33 *30:35 *142:176 0.000141179
34 *30:35 *147:14 0.00010208
35 *30:35 *147:61 0.000940551
36 *30:35 *152:22 0.000271868
37 *30:35 *196:81 5.37465e-05
38 *30:35 *197:38 0
39 *30:35 *197:44 3.70187e-05
40 *30:35 *204:53 9.81333e-06
41 *30:35 *209:79 7.95009e-05
42 *30:35 *210:25 0.000106361
*RES
1 *991:X *30:8 38.6214 
2 *30:8 *30:10 26.9079 
3 *30:10 *994:B 48.1707 
4 *30:10 *30:35 47.263 
5 *30:35 *993:A1 47.1971 
*END

*D_NET *31 0.0163
*CONN
*I *993:A2 I *D sky130_fd_sc_hd__o21a_2
*I *994:C I *D sky130_fd_sc_hd__or3_4
*I *992:Y O *D sky130_fd_sc_hd__a21oi_1
*CAP
1 *993:A2 0
2 *994:C 0.000263211
3 *992:Y 6.52522e-05
4 *31:49 0.000705746
5 *31:32 0.00165043
6 *31:20 0.00270941
7 *31:16 0.00160834
8 *31:8 0.00105714
9 *994:C *33:10 0.000297866
10 *994:C *201:55 5.07009e-05
11 *31:8 *1043:A 2.32101e-05
12 *31:8 *78:52 0
13 *31:16 *1043:A 4.05745e-05
14 *31:16 *137:18 2.05503e-05
15 *31:16 *181:47 0.000119391
16 *31:16 *193:49 0.000130211
17 *31:16 *209:98 6.7177e-06
18 *31:16 *212:12 8.49222e-05
19 *31:20 *1061:A1 4.04598e-06
20 *31:20 *137:22 0.00177253
21 *31:32 *964:B 8.40936e-05
22 *31:32 *134:158 6.00256e-05
23 *31:32 *136:69 0
24 *31:32 *142:16 0
25 *31:32 *147:24 0.000445247
26 *31:32 *171:14 0.000586132
27 *31:32 *172:21 0.000858354
28 *31:32 *181:55 0
29 *31:32 *197:38 0.000151232
30 *31:32 *201:55 0.00064823
31 *31:32 *203:16 0.000620627
32 *31:49 *992:B1 0.000127002
33 *31:49 *993:B1 2.31687e-05
34 *31:49 *1061:A2 5.50049e-05
35 *31:49 *48:39 0.000183457
36 *31:49 *181:39 1.41129e-05
37 *31:49 *193:31 3.98373e-05
38 *31:49 *209:98 0.000229073
39 *993:A1 *31:49 0.000808135
40 *994:B *994:C 0.000731601
41 *994:B *31:32 2.43944e-05
*RES
1 *992:Y *31:8 24.1186 
2 *31:8 *31:16 35.0129 
3 *31:16 *31:20 35.155 
4 *31:20 *31:32 49.7586 
5 *31:32 *994:C 31.2443 
6 *31:8 *31:49 44.4379 
7 *31:49 *993:A2 23 
*END
